examples/PvDemo/data/anu/anu.m
function mpc = anu
%ANUNETWORKACTEWA

%% MATPOWER Case Format : Version 2
mpc.version = '2';

%%-----  Power Flow Data  -----%%
%% system MVA base
mpc.baseMVA = 100;

%% bus data
%	bus_i	type	Pd	Qd	Gs	Bs	area	Vm	Va	baseKV	zone	Vmax	Vmin
mpc.bus = [
	1	1	0.0666668	0.0555566667	0	0	8	0.973166074	29.3251027	0.415	2	1.1	0.9;
	2	1	0.0666668	0.0555566667	0	0	8	0.973166074	29.3251027	0.415	2	1.1	0.9;
	3	1	0.1	0.0833333333	0	0	8	0.964804065	28.9802255	0.415	2	1.1	0.9;
	4	1	0.1	0.0833333333	0	0	8	0.964804065	28.9802255	0.415	2	1.1	0.9;
	5	1	0	0	0	0	8	0.968114107	28.9980341	0.415	2	1.1	0.9;
	6	1	0	0	0	0	8	0.968114107	28.9980341	0.415	2	1.1	0.9;
	7	1	0.1333332	0.11111	0	0	8	0.958770523	29.0143266	0.415	2	1.1	0.9;
	8	1	0	0	0	0	8	0.963211685	29.0383436	0.415	2	1.1	0.9;
	9	1	0	0	0	0	8	0.963211685	29.0383436	0.415	2	1.1	0.9;
	10	1	0.1	0.0833333333	0	0	8	0.958210015	28.9473497	0.415	2	1.1	0.9;
	11	1	0	0	0	0	8	0.961542836	28.9654035	0.415	2	1.1	0.9;
	12	1	0.1	0.0833333333	0	0	8	0.954044215	29.0179399	0.415	2	1.1	0.9;
	13	1	0.1	0.0833333333	0	0	8	0.954044215	29.0179399	0.415	2	1.1	0.9;
	14	1	0	0	0	0	8	0.957391589	29.0361511	0.415	2	1.1	0.9;
	15	1	0	0	0	0	8	0.957391589	29.0361511	0.415	2	1.1	0.9;
	16	1	0.1333332	0.11111	0	0	8	0.958100922	28.9252604	0.415	2	1.1	0.9;
	17	1	0	0	0	0	8	0.962545188	28.9493107	0.415	2	1.1	0.9;
	18	1	0.1333332	0.11111	0	0	8	0.958102857	28.9253935	0.415	2	1.1	0.9;
	19	1	0	0	0	0	8	0.962547114	28.9494438	0.415	2	1.1	0.9;
	20	1	0.0666668	0.0555566667	0	0	8	0.970019073	28.8677038	0.415	2	1.1	0.9;
	21	1	0.0666668	0.0555566667	0	0	8	0.970001686	28.8687079	0.415	2	1.1	0.9;
	22	1	0.1	0.0833333333	0	0	8	0.96259474	28.9294103	0.415	2	1.1	0.9;
	23	1	0	0	0	0	8	0.96591238	28.9473005	0.415	2	1.1	0.9;
	24	1	0.1	0.0833333333	0	0	8	0.962595184	28.9294408	0.415	2	1.1	0.9;
	25	1	0	0	0	0	8	0.965912822	28.947331	0.415	2	1.1	0.9;
	26	1	0.1	0.0833333333	0	0	8	0.96422469	28.9176744	0.415	2	1.1	0.9;
	27	1	0	0	0	0	8	0.967536721	28.9355044	0.415	2	1.1	0.9;
	28	1	0.0666668	0.0555566667	0	0	8	0.961056137	28.9067046	0.415	2	1.1	0.9;
	29	1	0.1	0.0833333333	0	0	8	0.965318868	28.9158936	0.415	2	1.1	0.9;
	30	1	0	0	0	0	8	0.968627145	28.9336833	0.415	2	1.1	0.9;
	31	1	0.1333332	0.11111	0	0	8	0.954096008	28.9907075	0.415	2	1.1	0.9;
	32	1	0	0	0	0	8	0.95855893	29.0149593	0.415	2	1.1	0.9;
	33	1	0.1333332	0.11111	0	0	8	0.954095705	28.9906868	0.415	2	1.1	0.9;
	34	1	0	0	0	0	8	0.958558628	29.0149386	0.415	2	1.1	0.9;
	35	1	0.1	0.0833333333	0	0	8	0.950053527	29.0438007	0.415	2	1.1	0.9;
	36	1	0	0	0	0	8	0.953414963	29.0621647	0.415	2	1.1	0.9;
	37	1	0.1	0.0833333333	0	0	8	0.967328646	28.9242427	0.415	2	1.1	0.9;
	38	1	0	0	0	0	8	0.970630049	28.9419588	0.415	2	1.1	0.9;
	39	1	0.1	0.0833333333	0	0	8	0.967326583	28.9241012	0.415	2	1.1	0.9;
	40	1	0	0	0	0	8	0.970627993	28.9418174	0.415	2	1.1	0.9;
	41	1	0.0666668	0.0555566667	0	0	8	0.974924492	28.8753598	0.415	2	1.1	0.9;
	42	1	0.0333333333	0.0277766667	0	0	8	0.964170337	29.1294697	0.415	2	1.1	0.9;
	43	1	0.0666668	0.0555566667	0	0	8	0.968847445	28.9409889	0.415	2	1.1	0.9;
	44	1	0.0333333333	0.0277766667	0	0	8	0.96439151	29.131324	0.415	2	1.1	0.9;
	45	1	0.0666668	0.0555566667	0	0	8	0.9713678	28.8695751	0.415	2	1.1	0.9;
	46	1	0.1333332	0.11111	0	0	8	0.948365272	29.0300522	0.415	2	1.1	0.9;
	47	1	0	0	0	0	8	0.952855164	29.0545966	0.415	2	1.1	0.9;
	48	1	0.1333332	0.11111	0	0	8	0.948366803	29.0301402	0.415	2	1.1	0.9;
	49	1	0	0	0	0	8	0.952856687	29.0546845	0.415	2	1.1	0.9;
	50	1	0	0	0	0	8	0.958943333	29.080428	0.415	2	1.1	0.9;
	51	1	0.1	0.0833333333	0	0	8	0.965411071	28.9158793	0.415	2	1.1	0.9;
	52	1	0	0	0	0	8	0.968719032	28.9336656	0.415	2	1.1	0.9;
	53	1	0.1	0.0833333333	0	0	8	0.962503373	28.9296922	0.415	2	1.1	0.9;
	54	1	0	0	0	0	8	0.965821327	28.9475858	0.415	2	1.1	0.9;
	55	1	0	0	0	0	8	0.969462519	28.9130276	0.415	2	1.1	0.9;
	56	1	0.0666668	0.0555566667	0	0	8	0.973567408	28.8928036	0.415	2	1.1	0.9;
	57	1	0.0666668	0.0555566667	0	0	8	0.973567408	28.8928036	0.415	2	1.1	0.9;
	58	1	0.0666668	0.0555566667	0	0	8	0.960276216	28.890254	0.415	2	1.1	0.9;
	59	1	0	0	0	0	8	0.962493328	28.902251	0.415	2	1.1	0.9;
	60	1	0.1	0.0833333333	0	0	8	0.957213302	28.9574814	0.415	2	1.1	0.9;
	61	1	0	0	0	0	8	0.960549594	28.9755726	0.415	2	1.1	0.9;
	62	1	0.1333332	0.11111	0	0	8	0.912145663	27.3712096	0.415	2	1.1	0.9;
	63	1	0	0	0	0	8	0.935488498	27.5011733	0.415	2	1.1	0.9;
	64	1	0.0666668	0.0555566667	0	0	8	0.970166442	28.8670445	0.415	2	1.1	0.9;
	65	1	0.0666668	0.0555566667	0	0	8	0.970166442	28.8670445	0.415	2	1.1	0.9;
	66	1	0.1	0.0833333333	0	0	8	0.956466099	28.9631029	0.415	2	1.1	0.9;
	67	1	0	0	0	0	8	0.959804997	28.9812223	0.415	2	1.1	0.9;
	68	1	0.1333332	0.11111	0	0	8	0.957574447	28.930306	0.415	2	1.1	0.9;
	69	1	0	0	0	0	8	0.962021157	28.9543827	0.415	2	1.1	0.9;
	70	1	0.1333332	0.11111	0	0	8	0.946978469	28.7922313	0.415	2	1.1	0.9;
	71	1	0	0	0	0	8	0.959520442	29.1417863	0.433	2	1.1	0.9;
	72	1	0	0	0	0	8	0.959505994	29.1416878	0.433	2	1.1	0.9;
	73	1	0.1333332	0.0833333333	0	0	8	0.97604626	28.9144631	0.415	2	1.1	0.9;
	74	1	0	0	0	0	8	0.97643294	28.9196991	0.415	2	1.1	0.9;
	75	1	0.1	0.0833333333	0	0	8	0.961550606	29.3405092	0.415	2	1.1	0.9;
	76	1	0	0	0	0	8	0.964871848	29.3584382	0.415	2	1.1	0.9;
	77	1	0.1333332	0.11111	0	0	8	0.959998674	29.0781437	11	2	1.1	0.9;
	78	1	0	0	0	0	8	0.960004988	29.078178	11	2	1.1	0.9;
	79	1	0.1333332	0.11111	0	0	8	0.953495945	29.0529407	0.433	2	1.1	0.9;
	80	1	0	0	0	0	8	0.953906154	29.0551808	0.433	2	1.1	0.9;
	81	1	0.0666668	0.0444433333	0	0	8	0.960852104	28.9899904	0.433	2	1.1	0.9;
	82	1	0	0	0	0	8	0.961037135	28.9921968	0.433	2	1.1	0.9;
	83	1	0.1333332	0.11111	0	0	8	0.955218248	29.0486714	0.415	2	1.1	0.9;
	84	1	0	0	0	0	8	0.959675927	29.0728665	0.415	2	1.1	0.9;
	85	1	0.1333332	0.11111	0	0	8	0.95525064	29.0488906	0.415	2	1.1	0.9;
	86	1	0	0	0	0	8	0.959708168	29.073084	0.415	2	1.1	0.9;
	87	1	0.1333332	0.11111	0	0	8	0.955662399	29.0515279	0.433	2	1.1	0.9;
	88	1	0	0	0	0	8	0.959755256	29.073741	0.433	2	1.1	0.9;
	89	1	0.1	0.0833333333	0	0	8	0.956577872	29.0063111	0.433	2	1.1	0.9;
	90	1	0	0	0	0	8	0.959644579	29.0229562	0.433	2	1.1	0.9;
	91	1	0.1333332	0.11111	0	0	8	0.949810501	29.0278514	0.433	2	1.1	0.9;
	92	1	0	0	0	0	8	0.953928576	29.0503379	0.433	2	1.1	0.9;
	93	1	0	0	0	0	8	0.978774679	0.0959579861	11	2	1.1	0.9;
	94	1	0	0	0	0	8	0.978251264	0.0913814301	11	2	1.1	0.9;
	95	1	0	0	0	0	9	0.999903592	-0.000191817328	11	2	1.1	0.9;
	96	1	0	0	0	0	9	0.999905635	-0.000259348395	11	2	1.1	0.9;
	97	1	0	0	0	0	9	0.999930387	-0.000486204081	11	2	1.1	0.9;
	98	1	0	0	0	0	9	0.999931809	-0.000545157003	11	2	1.1	0.9;
	99	3	0	0	0	0	9	1	0	11	2	1.1	0.9;
	100	1	0	0	0	0	8	0.978194749	0.0907866639	11	2	1.1	0.9;
	101	1	0	0	0	0	8	0.978540173	0.0935308882	11	2	1.1	0.9;
	102	1	0	0	0	0	8	0.978449178	0.0925896292	11	2	1.1	0.9;
	103	1	0	0	0	0	8	0.978411155	0.0921950578	11	2	1.1	0.9;
	104	1	0	0	0	0	8	0.97899113	0.0946617365	11	2	1.1	0.9;
	105	1	0	0	0	0	8	0.992218669	0.0279754098	11	2	1.1	0.9;
	106	1	0	0	0	0	8	0.992203272	0.0279707535	11	2	1.1	0.9;
	107	1	0	0	0	0	8	0.992168018	0.0279073849	11	2	1.1	0.9;
	108	1	0	0	0	0	9	0.992218057	0.0279349782	11	2	1.1	0.9;
	109	1	0	0	0	0	8	0.98716172	0.0328126723	11	2	1.1	0.9;
	110	1	0	0	0	0	8	0.984999568	0.0467501728	11	2	1.1	0.9;
	111	1	0	0	0	0	8	0.979836835	0.0866989935	11	2	1.1	0.9;
	112	1	0	0	0	0	8	0.978529761	0.202983299	11	2	1.1	0.9;
	113	1	0	0	0	0	8	0.978194802	0.0907845217	11	2	1.1	0.9;
	114	1	0	0	0	0	8	0.972570671	0.191347111	11	2	1.1	0.9;
	115	1	0	0	0	0	8	0.985627183	0.0400197849	11	2	1.1	0.9;
	116	1	0	0	0	0	8	0.987245366	0.0921250377	11	2	1.1	0.9;
	117	1	0	0	0	0	8	0.982710539	0.151247012	11	2	1.1	0.9;
	118	1	0	0	0	0	8	0.980808274	0.0742505747	11	2	1.1	0.9;
	119	1	0	0	0	0	8	0.976742778	0.154473556	11	2	1.1	0.9;
	120	1	0	0	0	0	8	0.982057933	0.0637315631	11	2	1.1	0.9;
	121	1	0	0	0	0	8	0.982059819	0.0638602352	11	2	1.1	0.9;
	122	1	0	0	0	0	8	0.987161019	0.0328689454	11	2	1.1	0.9;
	123	1	0	0	0	0	8	0.987164094	0.032884875	11	2	1.1	0.9;
	124	1	0	0	0	0	8	0.985088385	0.0463027427	11	2	1.1	0.9;
	125	1	0	0	0	0	8	0.985088818	0.0463322137	11	2	1.1	0.9;
	126	1	0	0	0	0	8	0.978382219	0.0922776876	11	2	1.1	0.9;
	127	1	0	0	0	0	8	0.987748008	0.0266345069	11	2	1.1	0.9;
	128	1	0	0	0	0	8	0.978155179	0.138520269	11	2	1.1	0.9;
	129	1	0	0	0	0	8	0.978154883	0.138500316	11	2	1.1	0.9;
	130	1	0	0	0	0	8	0.972849022	0.189677604	11	2	1.1	0.9;
	131	1	0	0	0	0	8	0.989710435	0.0304775044	11	2	1.1	0.9;
	132	1	0	0	0	0	8	0.98970842	0.0303406296	11	2	1.1	0.9;
	133	1	0	0	0	0	8	0.991998233	0.0280122127	11	2	1.1	0.9;
	134	1	0	0	0	0	8	0.981080441	0.172601066	11	2	1.1	0.9;
	135	1	0	0	0	0	8	0.978194665	0.090789582	11	2	1.1	0.9;
	136	1	0	0	0	0	8	0.986030778	0.10789285	11	2	1.1	0.9;
	137	1	0	0	0	0	8	0.978412559	0.0922093488	11	2	1.1	0.9;
	138	1	0	0	0	0	8	0.988505509	0.0305367365	11	2	1.1	0.9;
	139	1	0	0	0	0	8	0.97257216	0.191431592	11	2	1.1	0.9;
	140	1	0	0	0	0	8	0.972573651	0.191515883	11	2	1.1	0.9;
	141	1	0	0	0	0	8	0.978531498	0.203102733	11	2	1.1	0.9;
	142	1	0	0	0	0	8	0.972570669	0.1913473	11	2	1.1	0.9;
	143	1	0	0	0	0	8	0.978530629	0.203043016	11	2	1.1	0.9;
	144	1	0	0	0	0	8	0.972573948	0.191536067	11	2	1.1	0.9;
	145	1	0	0	0	0	8	0.978532662	0.203182386	11	2	1.1	0.9;
	146	1	0	0	0	0	8	0.987838034	0.0264128852	11	2	1.1	0.9;
	147	1	0	0	0	0	8	0.984999188	0.0467918106	11	2	1.1	0.9;
	148	1	0	0	0	0	8	0.98923723	0.0304410368	11	2	1.1	0.9;
	149	1	0	0	0	0	8	0.9906655	0.048616001	11	2	1.1	0.9;
	150	1	0	0	0	0	8	0.979837361	0.0868048584	11	2	1.1	0.9;
	151	1	0	0	0	0	8	0.979835479	0.086675896	11	2	1.1	0.9;
	152	1	0	0	0	0	8	0.979836422	0.0867403773	11	2	1.1	0.9;
	153	1	0	0	0	0	8	0.978685134	0.131426906	11	2	1.1	0.9;
	154	1	0	0	0	0	8	0.977359599	0.214730579	11	2	1.1	0.9;
	155	1	0	0	0	0	8	0.987325868	0.0308329934	11	2	1.1	0.9;
	156	1	0	0	0	0	8	0.979106239	0.0940214764	11	2	1.1	0.9;
	157	1	0	0	0	0	8	0.981544838	0.0699987656	11	2	1.1	0.9;
	158	1	0	0	0	0	8	0.978107305	0.207939601	11	2	1.1	0.9;
	159	1	0	0	0	0	8	0.978093142	0.207872538	11	2	1.1	0.9;
	160	1	0	0	0	0	8	0.991334708	0.0274618057	11	2	1.1	0.9;
	161	1	0	0	0	0	8	0.979417729	0.193567581	11	2	1.1	0.9;
	162	1	0	0	0	0	8	0.979471447	0.193805877	11	2	1.1	0.9;
	163	1	0	0	0	0	8	0.973508525	0.185254987	11	2	1.1	0.9;
	164	1	0	0	0	0	8	0.97485028	0.173181953	11	2	1.1	0.9;
	165	1	0	0	0	0	8	0.979248704	0.193855039	11	2	1.1	0.9;
	166	1	0	0	0	0	8	0.979280268	0.193998497	11	2	1.1	0.9;
	167	1	0	0	0	0	8	0.979318187	0.194168266	11	2	1.1	0.9;
	168	1	0	0	0	0	8	0.978287794	0.091568404	11	2	1.1	0.9;
	169	1	0	0	0	0	8	0.973614398	0.184268813	11	2	1.1	0.9;
	170	1	0	0	0	0	9	0.992294296	0.0282305243	11	2	1.1	0.9;
	171	1	0	0	0	0	9	0.992221972	0.0281999977	11	2	1.1	0.9;
	173	1	0	0	0	0	8	0.985154358	0.0461580143	11	2	1.1	0.9;
	174	1	0	0	0	0	8	0.986465869	0.102237633	11	2	1.1	0.9;
	175	1	0	0	0	0	8	0.981180989	0.171280158	11	2	1.1	0.9;
	176	1	0	0	0	0	8	0.979899493	0.0859967923	11	2	1.1	0.9;
	177	1	0	0	0	0	8	0.991362306	0.0274762294	11	2	1.1	0.9;
	178	1	0	0	0	0	8	0.989038967	0.0688657579	11	2	1.1	0.9;
	179	1	0	0	0	0	8	0.977689533	0.146748103	11	2	1.1	0.9;
	180	1	0	0	0	0	8	0.981598087	0.069687903	11	2	1.1	0.9;
	181	1	0	0	0	0	8	0.9871616	0.0328258241	11	2	1.1	0.9;
	182	1	0	0	0	0	8	0.985035167	0.0465988792	11	2	1.1	0.9;
	183	1	0	0	0	0	8	0.98760097	0.028509248	11	2	1.1	0.9;
	184	1	0	0	0	0	8	0.972973337	0.188887521	11	2	1.1	0.9;
	185	1	0	0	0	0	8	0.98078597	0.176472411	11	2	1.1	0.9;
	186	1	0	0	0	0	8	0.978194801	0.090784846	11	2	1.1	0.9;
	187	1	0	0	0	0	8	0.985613635	0.113314419	11	2	1.1	0.9;
	188	1	0	0	0	0	8	0.978181182	0.207506445	11	2	1.1	0.9;
	189	1	0	0	0	0	8	0.972681756	0.190806997	11	2	1.1	0.9;
	190	1	0	0	0	0	8	0.988417362	0.0249798323	11	2	1.1	0.9;
	191	1	0	0	0	0	8	0.979805377	0.0870648026	11	2	1.1	0.9;
	192	1	0	0	0	0	8	0.979836583	0.0867268427	11	2	1.1	0.9;
	193	1	0	0	0	0	8	0.978597156	0.132594657	11	2	1.1	0.9;
	194	1	0	0	0	0	8	0.987247275	0.0318231871	11	2	1.1	0.9;
	195	1	0	0	0	0	8	0.978327414	0.0913272559	11	2	1.1	0.9;
	196	1	0	0	0	0	8	0.981497984	0.0702676	11	2	1.1	0.9;
	197	1	0	0	0	0	8	0.977724069	0.209952535	11	2	1.1	0.9;
	198	1	0	0	0	0	8	0.990864136	0.0301518523	11	2	1.1	0.9;
	199	1	0	0	0	0	8	0.976381628	0.160164031	11	2	1.1	0.9;
	200	1	0	0	0	0	8	0.979176221	0.194795763	11	2	1.1	0.9;
	201	1	0	0	0	0	8	0.978275925	0.0916377446	11	2	1.1	0.9;
	202	1	0	0	0	0	9	0.998372923	-0.0041081695	11	2	1.1	0.9;
	203	1	0	0	0	0	9	0.999160214	-0.00273616936	11	2	1.1	0.9;
	204	1	0	0	0	0	9	0.998976429	-0.00769967952	11	2	1.1	0.9;
	205	1	0	0	0	0	9	0.999586576	-0.0035073907	11	2	1.1	0.9;
	206	1	0	0	0	0	8	0.987483578	0.0287945281	11	2	1.1	0.9;
	207	1	0	0	0	0	8	0.973437347	0.185947316	11	2	1.1	0.9;
	208	1	0	0	0	0	8	0.979995854	0.186880836	11	2	1.1	0.9;
	209	1	0	0	0	0	8	0.972737514	0.190430273	11	2	1.1	0.9;
	210	1	0	0	0	0	8	0.988182271	0.0255511966	11	2	1.1	0.9;
	211	1	0	0	0	0	8	0.979408136	0.0922257194	11	2	1.1	0.9;
	212	1	0	0	0	0	8	0.979836673	0.0867168592	11	2	1.1	0.9;
	213	1	0	0	0	0	8	0.978428679	0.134841813	11	2	1.1	0.9;
	214	1	0	0	0	0	8	0.987185646	0.0326084508	11	2	1.1	0.9;
	215	1	0	0	0	0	8	0.977688922	0.210408188	11	2	1.1	0.9;
	216	1	0	0	0	0	9	0.995032848	0.0127790098	11	2	1.1	0.9;
	217	1	0	0	0	0	9	0.995004439	0.0150731008	11	2	1.1	0.9;
	218	1	0	0	0	0	8	0.992266374	0.0281001365	11	2	1.1	0.9;
	219	1	0	0	0	0	8	0.985002958	0.0467825961	11	2	1.1	0.9;
	220	1	0	0	0	0	8	0.978203828	0.137863208	11	2	1.1	0.9;
	221	1	0	0	0	0	8	0.977461904	0.213377576	11	2	1.1	0.9;
	222	1	0	0	0	0	9	0.994471765	0.0113775841	11	2	1.1	0.9;
	223	1	0	0	0	0	9	0.99445532	0.0132839221	11	2	1.1	0.9;
	224	1	0	0	0	0	8	0.991539927	0.037370185	11	2	1.1	0.9;
	225	1	0	0	0	0	9	0.994129039	0.0131281929	11	2	1.1	0.9;
	226	1	0	0	0	0	9	0.994085715	0.0148895435	11	2	1.1	0.9;
	227	1	0	0	0	0	9	0.99304852	0.0243443372	11	2	1.1	0.9;
	228	1	0	0	0	0	9	0.993033736	0.0249868246	11	2	1.1	0.9;
	229	1	0	0	0	0	8	0.992230206	0.0275182084	11	2	1.1	0.9;
	230	1	0	0	0	0	9	0.992222003	0.0281999977	11	2	1.1	0.9;
	231	1	0	0	0	0	8	0.992230188	0.0275193817	11	2	1.1	0.9;
	232	1	0	0	0	0	9	0.991899807	0.0280261781	11	2	1.1	0.9;
	233	1	0	0	0	0	9	0.990394962	0.0282629281	11	2	1.1	0.9;
	234	1	0	0	0	0	9	0.988235046	0.0286790571	11	2	1.1	0.9;
	235	1	0.0666668	0.0555566667	0	0	8	0.978734688	29.4864209	0.415	2	1.1	0.9;
	236	1	0	0	0	0	9	0.988161113	0.0286950407	11	2	1.1	0.9;
	237	1	0.0666668	0.0555566667	0	0	8	0.978660024	29.4863549	0.415	2	1.1	0.9;
	238	1	0	0	0	0	9	0.986266973	0.0395453108	11	2	1.1	0.9;
	239	1	0.0666668	0.0555566667	0	0	8	0.973814258	29.3255676	0.415	2	1.1	0.9;
	240	1	0	0	0	0	9	0.98626423	0.0393583068	11	2	1.1	0.9;
	241	1	0.0666668	0.0555566667	0	0	8	0.97381148	29.3253766	0.415	2	1.1	0.9;
	242	1	0	0	0	0	9	0.983392262	0.0560043708	11	2	1.1	0.9;
	243	1	0.0666668	0.0555566667	0	0	8	0.973843747	29.5083388	0.415	2	1.1	0.9;
	244	1	0	0	0	0	9	0.983063174	0.0579329259	11	2	1.1	0.9;
	245	1	0	0	0	0	9	0.982753244	0.0597564299	11	2	1.1	0.9;
	246	1	0	0	0	0	9	0.98227234	0.0626002508	11	2	1.1	0.9;
	247	1	0.0666668	0.0555566667	0	0	8	0.973511369	29.509897	0.415	2	1.1	0.9;
	248	1	0.0666668	0.0555566667	0	0	8	0.973198337	29.5113713	0.415	2	1.1	0.9;
	249	1	0	0	0	0	9	0.986679694	0.0308800889	11	2	1.1	0.9;
	250	1	0	0	0	0	9	0.986242752	0.0364776671	11	2	1.1	0.9;
	251	1	0.1333332	0.11111	0	0	9	0.958770523	29.0143266	0.415	2	1.1	0.9;
	252	1	0.1333332	0.11111	0	0	9	0.954482217	29.0561958	0.415	2	1.1	0.9;
	253	1	0.1	0.0833333333	0	0	9	0.959214618	29.1401262	0.433	2	1.1	0.9;
	254	1	0.1	0.0833333333	0	0	9	0.959200166	29.1400276	0.433	2	1.1	0.9;
	255	1	0	0	0	0	9	0.992296151	0.0280287619	11	2	1.1	0.9;
	256	1	0	0	0	0	9	0.978741193	0.20045817	11	2	1.1	0.9;
	257	1	0	0	0	0	8	0.99230173	0.0274218538	11	2	1.1	0.9;
	258	1	0	0	0	0	8	0.971921677	0.201814094	11	2	1.1	0.9;
	259	1	0.186	0.183666667	0	0	8	0.93994905	28.5956296	0.415	2	1.1	0.9;
	260	1	0	0	0	0	8	0.971921675	0.201814199	11	2	1.1	0.9;
	261	1	0	0	0	0	9	0.971969287	0.201245231	11	2	1.1	0.9;
	262	1	0	0	0	0	9	0.972332739	0.194176917	11	2	1.1	0.9;
	263	1	0	0	0	0	8	0.97724931	0.215407331	11	2	1.1	0.9;
	264	1	0	0	0	0	8	0.977233544	0.215504862	11	2	1.1	0.9;
	265	1	0	0	0	0	8	0.977217776	0.215602607	11	2	1.1	0.9;
	266	1	0	0	0	0	8	0.957876647	29.0983935	0.415	2	1.1	0.9;
	267	1	0.1	0.0833333333	0	0	8	0.95453098	29.0802008	0.415	2	1.1	0.9;
	268	1	0	0	0	0	8	0.977179504	0.215837625	11	2	1.1	0.9;
	269	1	0	0	0	0	8	0.977141172	0.216077617	11	2	1.1	0.9;
	270	1	0	0	0	0	8	0.957644278	29.1076625	0.415	2	1.1	0.9;
	271	1	0.1	0.0833333333	0	0	8	0.954297794	29.0894609	0.415	2	1.1	0.9;
	272	1	0	0	0	0	9	0.986088869	0.0373627252	11	2	1.1	0.9;
	273	1	0	0	0	0	8	0.971646584	29.2137035	0.415	2	1.1	0.9;
	274	1	0.1	0.0833333333	0	0	8	0.968348659	29.1960246	0.415	2	1.1	0.9;
	275	1	0.1	0.0833333333	0	0	8	0.964927503	29.3610976	0.415	2	1.1	0.9;
	276	1	0.186	0.183666667	0	0	8	0.93994905	28.5956296	0.415	2	1.1	0.9;
	277	1	0.186	0.183666667	0	0	8	0.93994905	28.5956296	0.415	2	1.1	0.9;
	279	1	0	0	0	0	8	0.978449106	0.0925846819	11	2	1.1	0.9;
	280	1	0	0	0	0	8	0.978382073	0.0922677916	11	2	1.1	0.9;
	281	1	0	0	0	0	8	0.979105733	0.0939867745	11	2	1.1	0.9;
	282	1	0	0	0	0	9	0.978194738	0.0907945318	11	2	1.1	0.9;
	283	1	0	0	0	0	9	0.992230206	0.0275182084	11	1	1.1	0.9;
	284	1	0	0	0	0	8	0.985627183	0.0400197849	11	1	1.1	0.9;
	285	1	0	0	0	0	8	0.978154883	0.138500316	11	1	1.1	0.9;
	287	1	0	0	0	0	8	0.984999568	0.0467501728	11	1	1.1	0.9;
	288	1	0	0	0	0	8	0.978532662	0.203182386	11	1	1.1	0.9;
];

%% generator data
%	bus	Pg	Qg	Qmax	Qmin	Vg	mBase	status	Pmax	Pmin	Pc1	Pc2	Qc1min	Qc1max	Qc2min	Qc2max	ramp_agc	ramp_10	ramp_30	ramp_q	apf	mu_Pmax	mu_Pmin	mu_Qmax	mu_Qmin
mpc.gen = [
	99	21.4442268	18.3135958	9999	-9999	1	178.49875	1	9999	-9999	0	0	0	0	0	0	0	0	0	0	0	0.0000	0.0000	0.0000	0.0000;
];

%% branch data
%	fbus	tbus	r	x	b	rateA	rateB	rateC	ratio	angle	status	angmin	angmax	Pf	Qf	Pt	Qt
mpc.branch = [
	142	114	0.0022078512	0.0009173554	2.99838e-06	5.3347165	5.7157677	6.0968188	0	0	1	-360	360	-0.0000	-0.0003	0.0000	-0.0000;
	183	206	0.0086902479	0.0067980165	2.172724e-05	8.0020747	7.3352352	0	0	0	1	-360	360	0.8005	0.6810	-0.8004	-0.6831;
	97	204	0.011222479	0.011450579	4.256877e-05	5.3347165	5.7157677	6.0968188	0	0	1	-360	360	4.7246	3.6979	-4.7206	-3.6981;
	223	226	0.0036072727	0.0028218182	9.018856e-06	5.3347165	5.7157677	6.0968188	0	0	1	-360	360	5.9485	5.4208	-5.9461	-5.4198;
	228	170	0.0072145455	0.0056436364	1.803771e-05	5.3347165	5.7157677	6.0968188	0	0	1	-360	360	5.9389	5.4181	-5.9341	-5.4162;
	226	228	0.011060661	0.0071586777	2.981924e-05	5.3347165	5.7157677	6.0968188	0	0	1	-360	360	5.9461	5.4198	-5.9389	-5.4181;
	217	223	0.0047573554	0.0048540496	1.804546e-05	5.3347165	5.7157677	6.0968188	0	0	1	-360	360	5.9516	5.4222	-5.9485	-5.4208;
	203	217	0.040581818	0.031745455	0.0001014621	5.3347165	5.7157677	6.0968188	0	0	1	-360	360	5.9781	5.4329	-5.9516	-5.4222;
	96	203	0.006465124	0.0065965289	2.452331e-05	5.3347165	5.7157677	6.0968188	0	0	1	-360	360	5.9824	5.4347	-5.9781	-5.4329;
	227	170	0.0072145455	0.0056436364	1.803771e-05	5.3347165	5.7157677	6.0968188	0	0	1	-360	360	5.9909	5.6119	-5.9860	-5.6099;
	225	227	0.011151322	0.0072173554	3.006366e-05	5.3347165	5.7157677	6.0968188	0	0	1	-360	360	5.9985	5.6139	-5.9909	-5.6119;
	222	225	0.0032793388	0.0025652893	8.19896e-06	5.3347165	5.7157677	6.0968188	0	0	1	-360	360	6.0007	5.6148	-5.9985	-5.6139;
	127	183	0.012501818	0.0066354545	1.711799e-05	5.3347165	5.7157677	6.0968188	0	0	1	-360	360	0.8007	0.6794	-0.8005	-0.6810;
	216	222	0.0047573554	0.0048540496	1.804546e-05	5.3347165	5.7157677	6.0968188	0	0	1	-360	360	6.0040	5.6164	-6.0007	-5.6148;
	202	216	0.031973554	0.02501157	7.993986e-05	5.3347165	5.7157677	6.0968188	0	0	1	-360	360	6.0258	5.6255	-6.0040	-5.6164;
	95	202	0.01299124	0.013255289	4.927798e-05	5.3347165	5.7157677	6.0968188	0	0	1	-360	360	6.0347	5.6296	-6.0258	-5.6255;
	132	148	0.010729223	0.0090596694	2.126165e-05	10.764696	8.7641771	19.033506	0	0	1	-360	360	2.5295	2.1508	-2.5282	-2.1519;
	148	138	0.019912711	0.016814132	3.946019e-05	10.764696	8.7641771	19.033506	0	0	1	-360	360	2.1180	1.7947	-2.1165	-1.7972;
	147	110	0.032580496	0.017292397	4.461052e-05	6.1920816	5.7157677	0	0	0	1	-360	360	0.0000	-0.0043	0.0000	-0.0000;
	193	213	0.01401719	0.0074397521	1.91929e-05	6.1920816	5.7157677	0	0	0	1	-360	360	0.8068	0.6952	-0.8066	-0.6969;
	179	153	0.014774876	0.0078419008	2.023035e-05	6.1920816	5.7157677	0	0	0	1	-360	360	-4.4228	-4.0802	4.4284	4.0812;
	153	193	0.0073242975	0.003887438	1.002872e-05	6.1920816	5.7157677	0	0	0	1	-360	360	0.8068	0.6943	-0.8068	-0.6952;
	59	58	0.5806358	0.5806358	0	0.71808228	0.71808228	0.71808228	0	0	1	-360	360	0.2004	0.1671	-0.2000	-0.1667;
	146	127	0.0048370248	0.0037838017	1.209346e-05	19.033506	19.033506	19.033506	0	0	1	-360	360	1.1027	0.9401	-1.1026	-0.9412;
	61	60	0.5806358	0.5806358	0	0.71808228	0.71808228	0.71808228	0	0	1	-360	360	0.3010	0.2510	-0.3000	-0.2500;
	281	104	0.010021818	0.00696	1.445114e-05	9.4310166	7.7162863	19.033506	0	0	1	-360	360	0.7025	0.5999	-0.7025	-0.6012;
	67	66	0.5806358	0.5806358	0	0.71808228	0.71808228	0.71808228	0	0	1	-360	360	0.3010	0.2510	-0.3000	-0.2500;
	180	157	0.0014804959	0.0010281818	2.134828e-06	9.4310166	7.7162863	19.033506	0	0	1	-360	360	2.2164	1.8922	-2.2162	-1.8923;
	157	196	0.0015943802	0.0011072727	2.299046e-06	9.4310166	7.7162863	19.033506	0	0	1	-360	360	1.8131	1.5426	-1.8130	-1.5427;
	196	118	0.023460165	0.016292727	3.382882e-05	9.4310166	7.7162863	19.033506	0	0	1	-360	360	1.8130	1.5427	-1.8116	-1.5450;
	69	68	0.5806358	0.5806358	0	0.71808228	0.71808228	0.71808228	0	0	1	-360	360	0.4017	0.3350	-0.4000	-0.3333;
	27	26	0.5806358	0.5806358	0	0.71808228	0.71808228	0.71808228	0	0	1	-360	360	0.3010	0.2510	-0.3000	-0.2500;
	112	188	0.019447273	0.010321818	2.662798e-05	6.1920816	5.7157677	0	0	0	1	-360	360	1.2076	1.0282	-1.2070	-1.0305;
	30	29	0.5806358	0.5806358	0	0.71808228	0.71808228	0.71808228	0	0	1	-360	360	0.3010	0.2510	-0.3000	-0.2500;
	159	197	0.037581818	0.0261	5.419179e-05	9.4310166	7.7162863	19.033506	0	0	1	-360	360	0.6047	0.5098	-0.6045	-0.5148;
	63	62	2.903179	2.903179	0	0.71808228	0.71808228	0.71808228	0	0	1	-360	360	0.4095	0.3428	-0.4000	-0.3333;
	173	115	0.035358678	0.018766942	4.841451e-05	6.1920816	5.7157677	0	0	0	1	-360	360	-0.9060	-0.7774	0.9065	0.7730;
	55	70	2.903179	2.903179	0	0.71808228	0.71808228	0.71808228	0	0	1	-360	360	0.4088	0.3421	-0.4000	-0.3333;
	71	253	0.053336462	0.053336462	0	0.74922802	0.74922802	0.74922802	0	0	1	-360	360	0.3001	0.2501	-0.3000	-0.2500;
	72	254	0.053336462	0.053336462	0	0.74922802	0.74922802	0.74922802	0	0	1	-360	360	0.3001	0.2501	-0.3000	-0.2500;
	197	215	0.0039147107	0.0020777686	5.360178e-06	6.1920816	5.7157677	0	0	0	1	-360	360	0.6045	0.5148	-0.6045	-0.5153;
	215	221	0.025256198	0.013404959	3.45818e-05	6.1920816	5.7157677	0	0	0	1	-360	360	0.6045	0.5153	-0.6043	-0.5185;
	210	146	0.014511074	0.011351405	3.628039e-05	19.033506	19.033506	19.033506	0	0	1	-360	360	1.4052	1.1986	-1.4047	-1.2018;
	221	154	0.011365289	0.0060322314	1.556181e-05	6.1920816	5.7157677	0	0	0	1	-360	360	0.6043	0.5185	-0.6042	-0.5199;
	188	158	0.0037581818	0.00261	5.419179e-06	9.4310166	7.7162863	19.033506	0	0	1	-360	360	1.2070	1.0305	-1.2069	-1.0309;
	107	177	0.01327514	0.011209421	2.630679e-05	10.764696	8.7641771	19.033506	0	0	1	-360	360	3.5428	2.9345	-3.5400	-2.9347;
	177	160	0.0004546281	0.0003838843	9.009175e-07	10.764696	8.7641771	19.033506	0	0	1	-360	360	3.5400	2.9347	-3.5399	-2.9347;
	160	198	0.0093385124	0.0064854545	1.346584e-05	9.4310166	7.7162863	19.033506	0	0	1	-360	360	3.1386	2.6729	-3.1370	-2.6731;
	198	131	0.021185669	0.017889008	4.198276e-05	10.764696	8.7641771	19.033506	0	0	1	-360	360	3.1370	2.6731	-3.1333	-2.6741;
	74	73	0.05806358	0.05806358	0	0.71808228	0.71808228	0.71808228	0	0	1	-360	360	0.4001	0.2501	-0.4000	-0.2500;
	199	119	0.0061877686	0.0032842149	8.47254e-06	6.1920816	5.7157677	0	0	0	1	-360	360	-3.8122	-3.5545	3.8140	3.5546;
	207	163	0.0014804959	0.0010281818	2.134828e-06	9.4310166	7.7162863	19.033506	0	0	1	-360	360	-2.7949	-2.7145	2.7951	2.7145;
	163	169	0.0019360331	0.0013445455	2.791698e-06	9.4310166	7.7162863	19.033506	0	0	1	-360	360	-3.1967	-3.0628	3.1971	3.0628;
	190	210	0.00992	0.00776	2.480185e-05	19.033506	19.033506	19.033506	0	0	1	-360	360	1.4055	1.1965	-1.4052	-1.1986;
	164	199	0.023801818	0.01653	3.432147e-05	9.4310166	7.7162863	19.033506	0	0	1	-360	360	-3.8054	-3.5530	3.8122	3.5545;
	184	207	0.0091821488	0.0071828099	2.295709e-05	19.033506	19.033506	19.033506	0	0	1	-360	360	-2.7934	-2.7156	2.7949	2.7145;
	79	80	0.053336462	0.053336462	0	0.74922802	0.74922802	0.74922802	0	0	1	-360	360	-0.4000	-0.3333	0.4002	0.3335;
	162	208	0.0092185124	0.0048928099	1.262236e-05	6.1920816	5.7157677	0	0	0	1	-360	360	-3.8260	-3.2898	3.8285	3.2899;
	208	185	0.013890909	0.0073727273	1.901999e-05	6.1920816	5.7157677	0	0	0	1	-360	360	-3.8285	-3.2899	3.8321	3.2900;
	76	75	0.5806358	0.5806358	0	0.71808228	0.71808228	0.71808228	0	0	1	-360	360	0.3010	0.2510	-0.3000	-0.2500;
	78	77	0.0008264463	0.0008264463	0	19.033506	19.033506	19.033506	0	0	1	-360	360	0.4000	0.3333	-0.4000	-0.3333;
	82	81	0.053336462	0.053336462	0	0.74922802	0.74922802	0.74922802	0	0	1	-360	360	0.2000	0.1334	-0.2000	-0.1333;
	85	86	0.5806358	0.5806358	0	0.71808228	0.71808228	0.71808228	0	0	1	-360	360	-0.4000	-0.3333	0.4017	0.3351;
	149	190	0.077485289	0.094695537	1.39179e-06	8.6879669	5.9825035	0	0	0	1	-360	360	1.4082	1.1996	-1.4055	-1.1965;
	83	84	0.5806358	0.5806358	0	0.71808228	0.71808228	0.71808228	0	0	1	-360	360	-0.4000	-0.3333	0.4017	0.3351;
	87	88	0.53336462	0.53336462	0	0.71808228	0.71808228	0.71808228	0	0	1	-360	360	-0.4000	-0.3333	0.4016	0.3349;
	106	153	0.14349421	0.099654545	0.0002069141	9.4310166	7.7162863	19.033506	0	0	1	-360	360	5.7341	5.1940	-5.6467	-5.1534;
	101	195	0.025256281	0.03086595	4.536532e-07	8.6879669	5.9825035	0	0	0	1	-360	360	0.4020	0.3455	-0.4020	-0.3455;
	195	168	0.0060358678	0.0041918182	8.70353e-06	9.4310166	7.7162863	19.033506	0	0	1	-360	360	0.4020	0.3455	-0.4019	-0.3463;
	168	201	0.007288595	0.0050618182	1.050992e-05	9.4310166	7.7162863	19.033506	0	0	1	-360	360	0.1000	0.0849	-0.1000	-0.0859;
	201	94	0.011769917	0.014384132	2.114112e-07	8.6879669	5.9825035	0	0	0	1	-360	360	0.1000	0.0859	-0.1000	-0.0859;
	89	90	0.53336462	0.53336462	0	0.74922802	0.74922802	0.74922802	0	0	1	-360	360	-0.3000	-0.2500	0.3009	0.2509;
	169	164	0.020157521	0.013999091	2.906651e-05	9.4310166	7.7162863	19.033506	0	0	1	-360	360	-3.6001	-3.4127	3.6054	3.4136;
	52	51	0.5806358	0.5806358	0	0.71808228	0.71808228	0.71808228	0	0	1	-360	360	0.3010	0.2510	-0.3000	-0.2500;
	218	224	0.027402975	0.01454438	3.752125e-05	6.1920816	5.7157677	0	0	0	1	-360	360	1.8118	1.5407	-1.8102	-1.5435;
	224	149	0.032959339	0.017493471	4.512924e-05	6.1920816	5.7157677	0	0	0	1	-360	360	1.8102	1.5435	-1.8083	-1.5470;
	36	35	0.5806358	0.5806358	0	0.71808228	0.71808228	0.71808228	0	0	1	-360	360	0.3010	0.2510	-0.3000	-0.2500;
	220	128	0.0040409917	0.0021447934	5.533087e-06	6.1920816	5.7157677	0	0	0	1	-360	360	0.8064	0.6993	-0.8063	-0.6998;
	213	220	0.018689587	0.0099196694	2.559053e-05	6.1920816	5.7157677	0	0	0	1	-360	360	0.8066	0.6969	-0.8064	-0.6993;
	119	179	0.012755041	0.0088581818	1.839237e-05	9.4310166	7.7162863	19.033506	0	0	1	-360	360	-4.4180	-4.0786	4.4228	4.0802;
	32	31	0.5806358	0.5806358	0	0.71808228	0.71808228	0.71808228	0	0	1	-360	360	0.4017	0.3351	-0.4000	-0.3333;
	34	33	0.5806358	0.5806358	0	0.71808228	0.71808228	0.71808228	0	0	1	-360	360	0.4017	0.3351	-0.4000	-0.3333;
	14	12	0.5806358	0.5806358	0	0.71808228	0.71808228	0.71808228	0	0	1	-360	360	0.3010	0.2510	-0.3000	-0.2500;
	15	13	0.5806358	0.5806358	0	0.71808228	0.71808228	0.71808228	0	0	1	-360	360	0.3010	0.2510	-0.3000	-0.2500;
	130	184	0.0024595041	0.0019239669	6.149219e-06	19.033506	19.033506	19.033506	0	0	1	-360	360	-2.7930	-2.7158	2.7934	2.7156;
	209	130	0.0024595041	0.0019239669	6.149219e-06	19.033506	19.033506	19.033506	0	0	1	-360	360	-2.4907	-2.4541	2.4910	2.4537;
	144	189	0.0023775207	0.0018598347	5.944245e-06	19.033506	19.033506	19.033506	0	0	1	-360	360	-2.4902	-2.4546	2.4905	2.4542;
	189	209	0.0012297521	0.0009619835	3.07461e-06	19.033506	19.033506	19.033506	0	0	1	-360	360	-2.4905	-2.4542	2.4907	2.4541;
	47	46	0.5806358	0.5806358	0	0.71808228	0.71808228	0.71808228	0	0	1	-360	360	0.4017	0.3351	-0.4000	-0.3333;
	49	48	0.5806358	0.5806358	0	0.71808228	0.71808228	0.71808228	0	0	1	-360	360	0.4017	0.3351	-0.4000	-0.3333;
	50	252	0.5806358	0.5806358	0	0.71808228	0.71808228	0.71808228	0	0	1	-360	360	0.4017	0.3351	-0.4000	-0.3333;
	256	145	0.0087133884	0.0046247107	1.193072e-05	6.1920816	5.7157677	0	0	0	1	-360	360	1.6111	1.3772	-1.6107	-1.3781;
	200	256	0.018184463	0.0096515702	2.489889e-05	6.1920816	5.7157677	0	0	0	1	-360	360	1.6120	1.3752	-1.6111	-1.3772;
	181	109	0.018310744	0.009718595	2.50718e-05	5.3347165	5.7157677	6.0968188	0	0	1	-360	360	0.0000	-0.0024	0.0000	0.0000;
	165	200	0.0030307438	0.001608595	4.149816e-06	6.1920816	5.7157677	0	0	0	1	-360	360	1.6121	1.3749	-1.6120	-1.3752;
	161	167	0.0021638017	0.0015027273	3.120134e-06	9.4310166	7.7162863	19.033506	0	0	1	-360	360	2.8219	2.4243	-2.8216	-2.4244;
	117	175	0.026897851	0.014276281	3.682961e-05	6.1920816	5.7157677	0	0	0	1	-360	360	3.8411	3.2903	-3.8340	-3.2901;
	134	185	0.0051775207	0.0027480165	7.089268e-06	6.1920816	5.7157677	0	0	0	1	-360	360	3.8335	3.2901	-3.8321	-3.2900;
	175	134	0.0017679339	0.0009383471	2.420726e-06	6.1920816	5.7157677	0	0	0	1	-360	360	3.8340	3.2901	-3.8335	-3.2901;
	187	117	0.042177851	0.022386281	5.77516e-05	6.1920816	5.7157677	0	0	0	1	-360	360	4.6637	3.9928	-4.6474	-3.9898;
	8	7	0.5806358	0.5806358	0	0.71808228	0.71808228	0.71808228	0	0	1	-360	360	0.4017	0.3350	-0.4000	-0.3333;
	9	251	0.5806358	0.5806358	0	0.71808228	0.71808228	0.71808228	0	0	1	-360	360	0.4017	0.3350	-0.4000	-0.3333;
	136	187	0.0060614876	0.0032171901	8.299631e-06	6.1920816	5.7157677	0	0	0	1	-360	360	4.6661	3.9933	-4.6637	-3.9928;
	174	136	0.0060614876	0.0032171901	8.299631e-06	6.1920816	5.7157677	0	0	0	1	-360	360	4.8687	4.1676	-4.8661	-4.1670;
	122	181	0.016478678	0.012890579	4.119977e-05	5.3347165	5.7157677	6.0968188	0	0	1	-360	360	0.0000	-0.0065	-0.0000	0.0024;
	116	174	0.010860165	0.0057641322	1.487017e-05	6.1920816	5.7157677	0	0	0	1	-360	360	4.8733	4.1686	-4.8687	-4.1676;
	178	116	0.022225455	0.011796364	3.043198e-05	6.1920816	5.7157677	0	0	0	1	-360	360	5.4891	4.6953	-5.4772	-4.6920;
	6	4	0.5806358	0.5806358	0	0.71808228	0.71808228	0.71808228	0	0	1	-360	360	0.3010	0.2510	-0.3000	-0.2500;
	5	3	0.5806358	0.5806358	0	0.71808228	0.71808228	0.71808228	0	0	1	-360	360	0.3010	0.2510	-0.3000	-0.2500;
	108	178	0.039399669	0.020911736	5.39476e-05	6.1920816	5.7157677	0	0	0	1	-360	360	5.5101	4.7012	-5.4891	-4.6953;
	182	219	0.0066052893	0.0045872727	9.524618e-06	9.4310166	7.7162863	19.033506	0	0	1	-360	360	0.3020	0.2564	-0.3020	-0.2573;
	219	147	0.0007378512	0.0005771901	1.844766e-06	19.033506	19.033506	19.033506	0	0	1	-360	360	0.3020	0.2573	-0.3020	-0.2575;
	54	53	0.5806358	0.5806358	0	0.71808228	0.71808228	0.71808228	0	0	1	-360	360	0.3010	0.2510	-0.3000	-0.2500;
	124	182	0.010932893	0.0075927273	1.576488e-05	9.4310166	7.7162863	19.033506	0	0	1	-360	360	0.3020	0.2548	-0.3020	-0.2564;
	214	123	0.0036621488	0.001943719	5.014361e-06	5.3347165	5.7157677	6.0968188	0	0	1	-360	360	0.4001	0.3405	-0.4001	-0.3410;
	173	125	0.0042631405	0.003334876	1.065865e-05	8.0020747	7.3352352	0	0	0	1	-360	360	0.9060	0.7774	-0.9059	-0.7784;
	25	24	0.5806358	0.5806358	0	0.71808228	0.71808228	0.71808228	0	0	1	-360	360	0.3010	0.2510	-0.3000	-0.2500;
	23	22	0.5806358	0.5806358	0	0.71808228	0.71808228	0.71808228	0	0	1	-360	360	0.3010	0.2510	-0.3000	-0.2500;
	272	115	0.021865785	0.015185455	3.152977e-05	9.4310166	7.7162863	19.033506	0	0	1	-360	360	1.3080	1.1130	-1.3074	-1.1156;
	138	249	0.054828149	0.046296446	0.0001086507	10.764696	8.7641771	19.033506	0	0	1	-360	360	1.9164	1.6235	-1.9129	-1.6311;
	40	39	0.5806358	0.5806358	0	0.71808228	0.71808228	0.71808228	0	0	1	-360	360	0.3009	0.2509	-0.3000	-0.2500;
	38	37	0.5806358	0.5806358	0	0.71808228	0.71808228	0.71808228	0	0	1	-360	360	0.3009	0.2509	-0.3000	-0.2500;
	186	113	0.0047008264	0.0010353719	2.408384e-06	5.3347165	5.7157677	6.0968188	0	0	1	-360	360	0.0000	-0.0002	-0.0000	-0.0000;
	100	186	0.012261983	0.020512066	3.5816e-07	11.622061	8.5355464	0	0	0	1	-360	360	0.0000	-0.0003	0.0000	0.0002;
	135	100	0.016901653	0.028273388	4.9368e-07	11.622061	8.5355464	0	0	0	1	-360	360	0.0000	-0.0003	-0.0000	0.0003;
	155	194	0.013385785	0.0071046281	1.832835e-05	6.1920816	5.7157677	0	0	0	1	-360	360	0.4002	0.3373	-0.4001	-0.3391;
	94	282	0.026972727	0.032963636	4.84484e-07	8.6879669	5.9825035	0	0	0	1	-360	360	0.1000	0.0859	-0.1000	-0.0859;
	91	92	0.53336462	0.53336462	0	0.74922802	0.74922802	0.74922802	0	0	1	-360	360	-0.4000	-0.3333	0.4016	0.3349;
	104	93	0.018904793	0.013129091	2.726011e-05	9.4310166	7.7162863	19.033506	0	0	1	-360	360	0.7025	0.6012	-0.7023	-0.6037;
	93	101	0.01593843	0.019478512	2.86286e-07	8.6879669	5.9825035	0	0	0	1	-360	360	0.7023	0.6037	-0.7021	-0.6036;
	102	103	0.0090726446	0.011087769	1.629628e-07	8.6879669	5.9825035	0	0	0	1	-360	360	0.2001	0.1718	-0.2001	-0.1718;
	279	137	0.017409669	0.021276529	3.127124e-07	8.6879669	5.9825035	0	0	0	1	-360	360	0.1000	0.0862	-0.1000	-0.0862;
	101	102	0.01446719	0.017680496	2.598596e-07	8.6879669	5.9825035	0	0	0	1	-360	360	0.3001	0.2580	-0.3001	-0.2580;
	103	126	0.0084442975	0.0066056198	2.111232e-05	19.033506	19.033506	19.033506	0	0	1	-360	360	0.2001	0.1718	-0.2001	-0.1739;
	211	156	0.018449256	0.012812727	2.660324e-05	9.4310166	7.7162863	19.033506	0	0	1	-360	360	1.0049	0.8595	-1.0045	-0.8618;
	194	214	0.010481322	0.0055630579	1.435145e-05	6.1920816	5.7157677	0	0	0	1	-360	360	0.4001	0.3391	-0.4001	-0.3405;
	191	211	0.026645289	0.014142231	3.648379e-05	6.1920816	5.7157677	0	0	0	1	-360	360	1.0054	0.8563	-1.0049	-0.8595;
	151	191	0.0020204959	0.0010723967	2.766544e-06	6.1920816	5.7157677	0	0	0	1	-360	360	1.0054	0.8560	-1.0054	-0.8563;
	176	150	0.0027781818	0.0014745455	3.803998e-06	6.1920816	5.7157677	0	0	0	1	-360	360	1.5080	1.2876	-1.5079	-1.2879;
	118	176	0.040662479	0.021581983	5.567669e-05	6.1920816	5.7157677	0	0	0	1	-360	360	1.5096	1.2831	-1.5080	-1.2876;
	192	212	0.0053038017	0.0028150413	7.262178e-06	5.3347165	5.7157677	6.0968188	0	0	1	-360	360	0.0000	-0.0035	-0.0000	0.0028;
	212	111	0.021341488	0.01132719	2.922162e-05	5.3347165	5.7157677	6.0968188	0	0	1	-360	360	0.0000	-0.0028	-0.0000	0.0000;
	152	192	0.0058080992	0.0040336364	8.375095e-06	9.4310166	7.7162863	19.033506	0	0	1	-360	360	0.0000	-0.0043	-0.0000	0.0035;
	120	180	0.01401719	0.0074397521	1.91929e-05	5.3347165	5.7157677	6.0968188	0	0	1	-360	360	2.2176	1.8910	-2.2164	-1.8922;
	11	10	0.5806358	0.5806358	0	0.71808228	0.71808228	0.71808228	0	0	1	-360	360	0.3010	0.2510	-0.3000	-0.2500;
	240	242	0.048856364	0.03393	7.044934e-05	9.4310166	7.7162863	19.033506	0	0	1	-360	360	3.6411	3.1020	-3.6296	-3.1008;
	206	155	0.013385785	0.0071046281	1.832835e-05	6.1920816	5.7157677	0	0	0	1	-360	360	0.8004	0.6831	-0.8003	-0.6848;
	242	244	0.0059219835	0.0041127273	8.539314e-06	9.4310166	7.7162863	19.033506	0	0	1	-360	360	3.4292	2.9306	-3.4280	-2.9306;
	17	16	0.5806358	0.5806358	0	0.71808228	0.71808228	0.71808228	0	0	1	-360	360	0.4017	0.3350	-0.4000	-0.3333;
	19	18	0.5806358	0.5806358	0	0.71808228	0.71808228	0.71808228	0	0	1	-360	360	0.4017	0.3350	-0.4000	-0.3333;
	133	232	0.0012729587	0.001074876	2.522569e-06	10.764696	8.7641771	19.033506	0	0	1	-360	360	4.4684	3.7918	-4.4679	-3.7916;
	105	133	0.0027277686	0.0023033058	5.405505e-06	10.764696	8.7641771	19.033506	0	0	1	-360	360	4.6694	3.9658	-4.6684	-3.9654;
	205	171	0.10507628	0.068007438	0.0002832828	5.3347165	5.7157677	6.0968188	0	0	1	-360	360	4.6994	3.5498	-4.6628	-3.5542;
	98	205	0.004147438	0.0042317355	1.573194e-05	5.3347165	5.7157677	6.0968188	0	0	1	-360	360	4.7009	3.5497	-4.6994	-3.5498;
	204	171	0.094740909	0.061318182	0.0002554189	5.3347165	5.7157677	6.0968188	0	0	1	-360	360	4.7206	3.6981	-4.6864	-3.7012;
	122	123	0.0008264463	0.0008264463	0	0	0	0	0	0	1	-360	360	-0.2000	-0.1673	0.2000	0.1673;
	139	144	-0	8.264463e-05	0	0	0	0	0	0	1	-360	360	-2.0870	-2.1045	2.0870	2.1045;
	142	139	-0	8.264463e-05	0	0	0	0	0	0	1	-360	360	-1.6838	-1.7544	1.6838	1.7544;
	170	106	0.0008264463	0.0008264463	0	0	0	0	0	0	1	-360	360	5.7346	5.1945	-5.7341	-5.1940;
	171	108	-0	8.264463e-05	0	0	0	0	0	0	1	-360	360	5.5101	4.7012	-5.5101	-4.7012;
	166	167	0.0008264463	0.0008264463	0	0	0	0	0	0	1	-360	360	-2.4185	-2.0746	2.4186	2.0747;
	125	124	-0	8.264463e-05	0	0	0	0	0	0	1	-360	360	0.6040	0.5166	-0.6040	-0.5166;
	131	132	-0	8.264463e-05	0	0	0	0	0	0	1	-360	360	2.8314	2.4125	-2.8314	-2.4125;
	171	107	0.0008264463	0.0008264463	0	0	0	0	0	0	1	-360	360	3.5430	2.9347	-3.5428	-2.9345;
	171	105	-0	8.264463e-05	0	10.764696	8.7641771	19.033506	0	0	1	-360	360	4.6694	3.9658	-4.6694	-3.9658;
	129	128	-0	8.264463e-05	0	0	0	0	0	0	1	-360	360	-0.4032	-0.3499	0.4032	0.3499;
	152	151	-0	8.264463e-05	0	0	0	0	0	0	1	-360	360	1.3074	1.1179	-1.3074	-1.1179;
	150	152	-0	8.264463e-05	0	0	0	0	0	0	1	-360	360	1.3074	1.1136	-1.3074	-1.1136;
	121	120	-0	8.264463e-05	0	9.4310166	7.7162863	19.033506	0	0	1	-360	360	2.6207	2.2408	-2.6207	-2.2408;
	170	171	0.0008264463	0.0008264463	0	0	0	0	0	0	1	-360	360	4.3736	4.3101	-4.3733	-4.3098;
	99	98	0.0008264463	0.0008264463	0	0	0	0	0	0	1	-360	360	4.7012	3.5499	-4.7009	-3.5497;
	99	97	0.0008264463	0.0008264463	0	0	0	0	0	0	1	-360	360	4.7249	3.6982	-4.7246	-3.6979;
	99	96	0.0008264463	0.0008264463	0	0	0	0	0	0	1	-360	360	5.9829	5.4353	-5.9824	-5.4347;
	99	95	0.0008264463	0.0008264463	0	0	0	0	0	0	1	-360	360	6.0352	5.6302	-6.0347	-5.6296;
	287	110	-0	8.264463e-05	0	0	0	0	0	0	1	-360	360	0.0000	0.0000	0.0000	0.0000;
	158	159	0.0008264463	0.0008264463	0	0	0	0	0	0	1	-360	360	0.9058	0.7703	-0.9058	-0.7703;
	285	129	-0	8.264463e-05	0	0	0	0	0	0	1	-360	360	0.0000	0.0000	0.0000	0.0000;
	284	115	0.0008264463	0.0008264463	0	0	0	0	0	0	1	-360	360	0.0000	0.0000	0.0000	0.0000;
	162	161	0.0008264463	0.0008264463	0	0	0	0	0	0	1	-360	360	3.4246	2.9418	-3.4244	-2.9417;
	166	165	0.0008264463	0.0008264463	0	0	0	0	0	0	1	-360	360	2.0153	1.7248	-2.0153	-1.7247;
	170	218	0.0008264463	0.0008264463	0	0	0	0	0	0	1	-360	360	1.8119	1.5407	-1.8118	-1.5407;
	143	112	-0	8.264463e-05	0	0	0	0	0	0	1	-360	360	1.2076	1.0282	-1.2076	-1.0282;
	141	143	-0	8.264463e-05	0	0	0	0	0	0	1	-360	360	1.2076	1.0282	-1.2076	-1.0282;
	145	141	-0	8.264463e-05	0	0	0	0	0	0	1	-360	360	1.6107	1.3781	-1.6107	-1.3781;
	288	145	-0	8.264463e-05	0	0	0	0	0	0	1	-360	360	0.0000	0.0000	0.0000	0.0000;
	144	140	-0	8.264463e-05	0	0	0	0	0	0	1	-360	360	0.4032	0.3501	-0.4032	-0.3501;
	231	230	0.062636364	0.0435	0.0003612786	18.862033	15.432573	38.067013	0	0	1	-360	360	-0.0000	0.0009	0.0000	-0.0365;
	229	283	-0	8.264463e-05	0	10.764696	8.7641771	19.033506	0	0	1	-360	360	0.0000	0.0000	0.0000	0.0000;
	231	229	0.004546281	0.003838843	9.009175e-06	10.764696	8.7641771	19.033506	0	0	1	-360	360	0.0000	-0.0009	-0.0000	-0.0000;
	171	230	-0	8.264463e-05	0	15.089627	12.346058	30.45361	0	0	1	-360	360	0.0000	-0.0365	-0.0000	0.0365;
	232	233	0.019458083	0.016430248	3.855927e-05	10.764696	8.7641771	19.033506	0	0	1	-360	360	4.4679	3.7916	-4.4611	-3.7897;
	233	234	0.027914165	0.023570496	5.531633e-05	10.764696	8.7641771	19.033506	0	0	1	-360	360	4.4611	3.7897	-4.4514	-3.7869;
	234	236	0.0010001818	0.0008445455	1.982018e-06	10.764696	8.7641771	19.033506	0	0	1	-360	360	4.2510	3.6167	-4.2507	-3.6166;
	236	238	0.029040496	0.020168182	4.187548e-05	9.4310166	7.7162863	19.033506	0	0	1	-360	360	4.0504	3.4464	-4.0419	-3.4446;
	238	240	-0	8.264463e-05	0	10.764696	8.7641771	19.033506	0	0	1	-360	360	3.8415	3.2733	-3.8415	-3.2733;
	244	245	0.0059219835	0.0041127273	8.539314e-06	9.4310166	7.7162863	19.033506	0	0	1	-360	360	3.2276	2.7603	-3.2265	-2.7604;
	245	246	0.0097940496	0.0068018182	1.412271e-05	9.4310166	7.7162863	19.033506	0	0	1	-360	360	3.0262	2.5902	-3.0246	-2.5904;
	246	121	0.0043276033	0.0030054545	6.240268e-06	9.4310166	7.7162863	19.033506	0	0	1	-360	360	3.0246	2.5904	-3.0239	-2.5905;
	249	250	0.018437025	0.0097856198	2.524471e-05	6.1920816	5.7157677	0	0	0	1	-360	360	1.6109	1.3694	-1.6100	-1.3714;
	170	255	0.019194711	0.010187769	2.628217e-05	6.1920816	5.7157677	0	0	0	1	-360	360	0.0000	-0.0194	-0.0000	0.0168;
	255	257	0.12438678	0.066019421	0.0001703153	6.1920816	5.7157677	0	0	0	1	-360	360	0.0000	-0.0168	-0.0000	0.0000;
	258	260	0.0015943802	0.0011072727	2.299046e-06	9.4310166	7.7162863	19.033506	0	0	1	-360	360	0.0000	0.0000	-0.0000	-0.0002;
	261	260	0.0015943802	0.0011072727	2.299046e-06	9.4310166	7.7162863	19.033506	0	0	1	-360	360	1.6825	1.7567	-1.6824	-1.7569;
	262	261	0.013512066	0.0071716529	1.850126e-05	6.1920816	5.7157677	0	0	0	1	-360	360	1.6833	1.7554	-1.6825	-1.7567;
	142	262	0.0079719008	0.0055363636	1.149523e-05	9.4310166	7.7162863	19.033506	0	0	1	-360	360	1.6838	1.7547	-1.6833	-1.7554;
	154	263	0.011160661	0.0077509091	1.609332e-05	9.4310166	7.7162863	19.033506	0	0	1	-360	360	0.6042	0.5199	-0.6041	-0.5214;
	263	264	0.0015943802	0.0011072727	2.299046e-06	9.4310166	7.7162863	19.033506	0	0	1	-360	360	0.6041	0.5214	-0.6041	-0.5216;
	264	265	0.0015943802	0.0011072727	2.299046e-06	9.4310166	7.7162863	19.033506	0	0	1	-360	360	0.6041	0.5216	-0.6041	-0.5218;
	266	267	0.5806358	0.5806358	0	0.71808228	0.71808228	0.71808228	0	0	1	-360	360	0.3010	0.2510	-0.3000	-0.2500;
	265	268	0.0077441322	0.0053781818	1.116679e-05	9.4310166	7.7162863	19.033506	0	0	1	-360	360	0.3021	0.2599	-0.3021	-0.2609;
	268	269	0.0077441322	0.0053781818	1.116679e-05	9.4310166	7.7162863	19.033506	0	0	1	-360	360	0.3021	0.2609	-0.3021	-0.2620;
	270	271	0.5806358	0.5806358	0	0.71808228	0.71808228	0.71808228	0	0	1	-360	360	0.3010	0.2510	-0.3000	-0.2500;
	250	272	0.0059219835	0.0041127273	8.539313e-06	9.4310166	7.7162863	19.033506	0	0	1	-360	360	1.6100	1.3714	-1.6098	-1.3721;
	273	274	0.5806358	0.5806358	0	0.71808228	0.71808228	0.71808228	0	0	1	-360	360	0.3009	0.2509	-0.3000	-0.2500;
	102	279	-0	8.264463e-05	0	0	0	0	0	0	1	-360	360	0.1000	0.0862	-0.1000	-0.0862;
	126	280	-0	8.264463e-05	0	0	0	0	0	0	1	-360	360	0.2001	0.1739	-0.2001	-0.1739;
	156	281	-0	8.264463e-05	0	0	0	0	0	0	1	-360	360	0.7025	0.5999	-0.7025	-0.5999;
	282	135	-0	8.264463e-05	0	0	0	0	0	0	1	-360	360	0.1000	0.0859	-0.1000	-0.0859;
	20	122	0.06	9.7858161	0	0.5	0.65	0.65	1	30	1	-360	360	-0.2000	-0.1667	0.2000	0.1737;
	34	129	0.48	4.9769067	0	1	1.3	1.3	1	30	1	-360	360	-0.4017	-0.3351	0.4032	0.3499;
	14	119	0.61333333	6.5754439	0	0.75	0.975	0.975	1	30	1	-360	360	-0.3010	-0.2510	0.3020	0.2620;
	15	119	0.61333333	6.5754439	0	0.75	0.975	0.975	1	30	1	-360	360	-0.3010	-0.2510	0.3020	0.2620;
	36	130	0.61333333	6.5754439	0	0.75	0.975	0.975	1	30	1	-360	360	-0.3010	-0.2510	0.3020	0.2621;
	50	141	0.48	4.9769067	0	1	1.3	1.3	1	30	1	-360	360	-0.4017	-0.3351	0.4032	0.3499;
	49	140	0.48	4.9769067	0	1	1.3	1.3	1	30	1	-360	360	-0.4017	-0.3351	0.4032	0.3501;
	47	139	0.48	4.9769067	0	1	1.3	1.3	1	30	1	-360	360	-0.4017	-0.3351	0.4032	0.3501;
	88	167	0.48	4.9769067	0	1	1.3	1.3	1	30	1	-360	360	-0.4016	-0.3349	0.4030	0.3497;
	21	123	0.07	9.7857496	0	0.5	0.65	0.65	1	30	1	-360	360	-0.2000	-0.1667	0.2001	0.1737;
	8	117	0.48	4.9769067	0	1	1.3	1.3	1	30	1	-360	360	-0.4017	-0.3350	0.4031	0.3497;
	9	117	0.48	4.9769067	0	1	1.3	1.3	1	30	1	-360	360	-0.4017	-0.3350	0.4031	0.3497;
	43	136	0.07	9.7857496	0	0.5	0.65	0.65	1	30	1	-360	360	-0.2000	-0.1667	0.2001	0.1737;
	6	116	0.61333333	6.5754439	0	0.75	0.975	0.975	1	30	1	-360	360	-0.3010	-0.2510	0.3020	0.2617;
	5	116	0.61333333	6.5754439	0	0.75	0.975	0.975	1	30	1	-360	360	-0.3010	-0.2510	0.3020	0.2617;
	54	147	0.61333333	6.5754439	0	0.75	0.975	0.975	1	30	1	-360	360	-0.3010	-0.2510	0.3020	0.2618;
	25	125	0.61333333	6.5754439	0	0.75	0.975	0.975	1	30	1	-360	360	-0.3010	-0.2510	0.3020	0.2618;
	23	124	0.61333333	6.5754439	0	0.75	0.975	0.975	1	30	1	-360	360	-0.3010	-0.2510	0.3020	0.2618;
	2	115	0.61333333	6.4951057	0	0.75	0.65	0.65	1	30	1	-360	360	-0.2000	-0.1667	0.2004	0.1713;
	45	138	0.07	9.7857496	0	0.5	0.65	0.65	1	30	1	-360	360	-0.2000	-0.1667	0.2001	0.1737;
	65	155	0.07	9.7857496	0	0.5	0.65	0.65	1	30	1	-360	360	-0.2000	-0.1667	0.2001	0.1737;
	27	249	0.61333333	6.5754439	0	0.75	0.975	0.975	1	30	1	-360	360	-0.3010	-0.2510	0.3020	0.2617;
	40	132	0.61333333	6.5754439	0	0.75	0.975	0.975	1	30	1	-360	360	-0.3009	-0.2509	0.3019	0.2617;
	38	131	0.61333333	6.5754439	0	0.75	0.975	0.975	1	30	1	-360	360	-0.3009	-0.2509	0.3019	0.2617;
	42	135	0.12	15.923548	0	0.25	0.325	0.325	1	30	1	-360	360	-0.1000	-0.0833	0.1000	0.0862;
	28	280	0.07	9.7857496	0	0.5	0.65	0.65	1	30	1	-360	360	-0.2000	-0.1667	0.2001	0.1739;
	44	137	0.12	15.923548	0	0.25	0.325	0.325	1	30	1	-360	360	-0.1000	-0.0833	0.1000	0.0862;
	61	151	0.61333333	6.5754439	0	0.75	0.975	0.975	1	30	1	-360	360	-0.3010	-0.2510	0.3020	0.2619;
	59	150	0.07	9.7857496	0	0.5	0.65	0.65	1	30	1	-360	360	-0.2004	-0.1671	0.2005	0.1743;
	11	118	0.61333333	6.5754439	0	0.75	0.975	0.975	1	30	1	-360	360	-0.3010	-0.2510	0.3020	0.2619;
	17	120	0.48	4.9769067	0	1	1.3	1.3	1	30	1	-360	360	-0.4017	-0.3350	0.4031	0.3497;
	64	155	0.07	9.7857496	0	0.5	0.65	0.65	1	30	1	-360	360	-0.2000	-0.1667	0.2001	0.1737;
	19	121	0.48	4.9769067	0	1	1.3	1.3	1	30	1	-360	360	-0.4017	-0.3350	0.4031	0.3497;
	41	133	0.07	9.7857496	0	0.5	0.65	0.65	1	30	1	-360	360	-0.2000	-0.1667	0.2001	0.1736;
	55	148	0.48	4.9769067	0	1	1.3	1.3	1	30	1	-360	360	-0.4088	-0.3421	0.4102	0.3572;
	63	153	0.61333333	10.774544	0	0.75	1.3	1.3	1	30	1	-360	360	-0.4095	-0.3428	0.4115	0.3779;
	67	156	0.61333333	6.5754439	0	0.75	0.975	0.975	1	30	1	-360	360	-0.3010	-0.2510	0.3020	0.2619;
	69	157	0.48	4.9769067	0	1	1.3	1.3	1	30	1	-360	360	-0.4017	-0.3350	0.4031	0.3498;
	71	158	0.61333333	6.3303438	0	0.75	0.975	0.975	1	30	1	-360	360	-0.3001	-0.2501	0.3011	0.2606;
	72	159	0.61333333	6.3303438	0	0.75	0.975	0.975	1	30	1	-360	360	-0.3001	-0.2501	0.3011	0.2606;
	30	127	0.61333333	6.5754439	0	0.75	0.975	0.975	1	30	1	-360	360	-0.3010	-0.2510	0.3020	0.2617;
	74	160	0.48	4.9769067	0	1	0.975	0.975	1	30	1	-360	360	-0.4001	-0.2501	0.4013	0.2618;
	80	163	0.48	4.9769067	0	1	1.3	1.3	1	30	1	-360	360	-0.4002	-0.3335	0.4016	0.3483;
	1	115	0.61333333	6.4951057	0	0.75	0.65	0.65	1	30	1	-360	360	-0.2000	-0.1667	0.2004	0.1713;
	76	161	0.48	4.9769067	0	1	1.3	1.3	1	30	1	-360	360	-0.3010	-0.2510	0.3017	0.2592;
	78	162	0.48	4.9769067	0	1	1.3	1.3	1	30	1	-360	360	-0.4000	-0.3333	0.4014	0.3480;
	82	164	0.07	9.6997474	0	0.5	0.52	0.52	1	30	1	-360	360	-0.2000	-0.1334	0.2001	0.1394;
	86	166	0.48	4.9769067	0	1	1.3	1.3	1	30	1	-360	360	-0.4017	-0.3351	0.4032	0.3498;
	84	165	0.48	4.9769067	0	1	1.3	1.3	1	30	1	-360	360	-0.4017	-0.3351	0.4032	0.3498;
	90	168	0.61333333	6.3303438	0	0.75	0.975	0.975	1	30	1	-360	360	-0.3009	-0.2509	0.3019	0.2614;
	92	169	0.48	4.9769067	0	1	1.3	1.3	1	30	1	-360	360	-0.4016	-0.3349	0.4030	0.3499;
	52	146	0.61333333	6.5754439	0	0.75	0.975	0.975	1	30	1	-360	360	-0.3010	-0.2510	0.3020	0.2617;
	57	149	0.07	9.7857496	0	0.5	0.65	0.65	1	30	1	-360	360	-0.2000	-0.1667	0.2001	0.1737;
	56	149	0.07	9.7857496	0	0.5	0.65	0.65	1	30	1	-360	360	-0.2000	-0.1667	0.2001	0.1737;
	32	128	0.48	4.9769067	0	1	1.3	1.3	1	30	1	-360	360	-0.4017	-0.3351	0.4032	0.3499;
	235	234	0.48	4.9769067	0	1	0.65	0.65	1	30	1	-360	360	-0.2000	-0.1667	0.2003	0.1702;
	237	236	0.48	4.9769067	0	1	0.65	0.65	1	30	1	-360	360	-0.2000	-0.1667	0.2003	0.1702;
	239	238	0.61333333	6.4951057	0	0.75	0.65	0.65	1	30	1	-360	360	-0.2000	-0.1667	0.2004	0.1713;
	241	240	0.61333333	6.4951057	0	0.75	0.65	0.65	1	30	1	-360	360	-0.2000	-0.1667	0.2004	0.1713;
	243	242	0.48	4.9769067	0	1	0.65	0.65	1	30	1	-360	360	-0.2000	-0.1667	0.2003	0.1702;
	247	244	0.48	4.9769067	0	1	0.65	0.65	1	30	1	-360	360	-0.2000	-0.1667	0.2003	0.1702;
	248	245	0.48	4.9769067	0	1	0.65	0.65	1	30	1	-360	360	-0.2000	-0.1667	0.2003	0.1702;
	259	260	0.4	4.9839743	0	1.5	0.975	0.975	1	30	1	-360	360	-0.5580	-0.5510	0.5608	0.5857;
	266	265	0.61333333	6.5754439	0	0.75	0.975	0.975	1	30	1	-360	360	-0.3010	-0.2510	0.3020	0.2620;
	270	269	0.66666667	6.5702508	0	0.75	0.975	0.975	1	30	1	-360	360	-0.3010	-0.2510	0.3021	0.2620;
	273	272	0.48	4.9769067	0	1	0.975	0.975	1	30	1	-360	360	-0.3009	-0.2509	0.3017	0.2590;
	275	161	0.48	4.9769067	0	1	1.3	1.3	1	30	1	-360	360	-0.3000	-0.2500	0.3008	0.2582;
	276	260	0.4	4.9839743	0	1.5	0.975	0.975	1	30	1	-360	360	-0.5580	-0.5510	0.5608	0.5857;
	277	260	0.4	4.9839743	0	1.5	0.975	0.975	1	30	1	-360	360	-0.5580	-0.5510	0.5608	0.5857;
];

%%-----  OPF Data  -----%%
%% generator cost data
%	1	startup	shutdown	n	x1	y1	...	xn	yn
%	2	startup	shutdown	n	c(n-1)	...	c0
mpc.gencost = [
	2	0	0	3	0	1	0;
];

%% bus names
mpc.bus_name = {
	'1008B1T1';
	'1008B1T2';
	'1225E1';
	'1225E2';
	'1225T1';
	'1225T2';
	'1240E1';
	'1240T1';
	'1240T2';
	'1241E1';
	'1241T1';
	'1348E1';
	'1348E2';
	'1348T1';
	'1348T2';
	'1744B1E1';
	'1744B1T1';
	'1744B2E2';
	'1744B2T2';
	'1853B1T1';
	'1853B2T2';
	'1952B1E1';
	'1952B1T1';
	'1952B2E2';
	'1952B2T2';
	'2002E1';
	'2002T1';
	'2497T1';
	'2972E1';
	'2972T1';
	'3294B1E1';
	'3294B1T1';
	'3294B2E2';
	'3294B2T2';
	'3401E1';
	'3401T1';
	'3411B1E1';
	'3411B1T1';
	'3411B2E2';
	'3411B2T2';
	'3488T1';
	'4115T1';
	'4685T1';
	'4737T1';
	'4871T1';
	'5151B1E1';
	'5151B1T1';
	'5151B2E2';
	'5151B2T2';
	'5151B3T3';
	'5842E1';
	'5842T1';
	'6163E1';
	'6163T1';
	'6809T1';
	'739T1';
	'739T2';
	'755B1E1';
	'755B1T1';
	'755B2E2';
	'755B2T2';
	'7584E1';
	'7584T1';
	'776T1';
	'776T2';
	'8007E1';
	'8007T1';
	'8500E1';
	'8500T1';
	'8609E1';
	'8773B1T1';
	'8773B2T2';
	'8845B1E1';
	'8845T1';
	'8972B1E1';
	'8972B1T1';
	'8972B2E2';
	'8972B2T2';
	'9003E1';
	'9003T1';
	'9142E1';
	'9142T1';
	'9266B1E1';
	'9266B1T1';
	'9266B2E2';
	'9266B2T2';
	'9266B3E3';
	'9266B3T3';
	'9469E1';
	'9469T1';
	'9525E1';
	'9525T1';
	'A4333';
	'A4378';
	'ANU1';
	'ANU2';
	'ANU3';
	'ANU4';
	'CV_AG_F';
	'L5321';
	'L6976';
	'L7451';
	'L7452';
	'L8653';
	'OASW1254B2';
	'N555';
	'OBSW1254B2';
	'OCSW1254B2';
	'OS1008B1';
	'OS1241';
	'OS3294B2';
	'OS5151B6';
	'OSW2962';
	'PLASMA';
	'S1008B1';
	'S1225';
	'S1240';
	'S1241';
	'S1348';
	'S1744B1';
	'S1744B2';
	'S1853B1';
	'S1853B2';
	'S1952B1';
	'S1952B2';
	'S2497';
	'S2972';
	'S3294B1';
	'S3294B2';
	'S3401';
	'S3411B1';
	'S3411B2';
	'S3488';
	'S3492';
	'S4115';
	'S4685';
	'S4737';
	'S4871';
	'S5151B1';
	'S5151B2';
	'S5151B3';
	'S5151B4';
	'S5151B5';
	'S5151B6';
	'S5151B7';
	'S5842';
	'S6163';
	'S6809';
	'S739';
	'S755B1';
	'S755B2';
	'S755B3';
	'S7584';
	'S7673';
	'S776';
	'S8007';
	'S8500';
	'S8773B1';
	'S8773B2';
	'S8845';
	'S8972B1';
	'S8972B2';
	'S9003';
	'S9142';
	'S9266B1';
	'S9266B2';
	'S9266B3';
	'S9469';
	'S9525';
	'SW1254B1';
	'SW1254B2';
	'Z1_1008';
	'Z1_1225';
	'Z1_1240';
	'Z1_1241';
	'Z1_1254';
	'Z1_1254B2';
	'Z1_1348';
	'Z1_1744';
	'Z1_1853';
	'Z1_1952';
	'Z1_2972';
	'Z1_3401';
	'Z1_3492';
	'Z1_4115';
	'Z1_4685';
	'Z1_5151';
	'Z1_5151B6';
	'Z1_739';
	'Z1_755B2';
	'Z1_755B3';
	'Z1_7584';
	'Z1_776';
	'Z1_8007';
	'Z1_8500';
	'Z1_8773';
	'Z1_8845';
	'Z1_9142';
	'Z1_9266';
	'Z1_9469';
	'Z1_ANU1';
	'Z1_ANU2';
	'Z1_ANU3';
	'Z1_ANU4';
	'Z2_2972';
	'Z2_3401';
	'Z2_3492';
	'Z2_5151B6';
	'Z2_739';
	'Z2_755B2';
	'Z2_755B3';
	'Z2_7584';
	'Z2_776';
	'Z2_8773';
	'Z2_ANU1';
	'Z2_ANU2';
	'Z3_1254B1';
	'Z3_1952';
	'Z3_7584';
	'Z3_8773';
	'Z3_ANU1';
	'Z3_ANU2';
	'Z4_1254B1';
	'Z4_ANU1';
	'Z4_ANU2';
	'Z5_ANU1';
	'Z5_ANU2';
	'N255';
	'N256';
	'N258';
	'N275';
	'N277';
	'S9746';
	'S9746';
	'S9747';
	'S9747';
	'S9634';
	'S9634';
	'S9635';
	'S9635';
	'S9655A';
	'S9655A';
	'S9655B';
	'S9655C';
	'N301';
	'S9655B';
	'S9655C';
	'S2002';
	'N309';
	'N310';
	'N311';
	'N312';
	'N313';
	'N317';
	'N318';
	'N320';
	'N326';
	'S9770T2';
	'S9770';
	'N339';
	'N340';
	'N342';
	'S8782';
	'S9260';
	'S9260';
	'N352';
	'N354';
	'S7673';
	'S7673';
	'N359';
	'S9427';
	'S9427';
	'N365';
	'S8972T3';
	'S9770T3';
	'S9770T1';
	'N378';
	'N382';
	'N385';
	'N386';
	'653-*CV_AG_F';
	'654-*OS1008B1';
	'655-*OS3294B2';
	'657-*S1241';
	'658-*S5151B2';
};
